packages/openpy-fx-tools-dss/openpy_fx_tools_dss-0.1.3.tar.gz/openpy_fx_tools_dss-0.1.3/openpy_fx_tools_dss/Examples/123Bus/xlsx_files/DSS_files_from_xlsx/123BusIEEE_VLN_elem.Txt

NODE-GROUND VOLTAGES BY CIRCUIT ELEMENT

Power Delivery Elements

Bus      (node ref)  Phase    Magnitude, kV (pu)    Angle

ELEMENT = "Vsource.SOURCE"
150       (  0)    0                0 (       0) /_    0.0
150       (  1)    2           2.3491 (  0.9781) /_ -120.8
150       (  2)    3           2.4556 (   1.022) /_  119.3
------------
150       (  0)    0                0 (       0) /_    0.0
150       (  0)    0                0 (       0) /_    0.0
150       (  0)    0                0 (       0) /_    0.0

ELEMENT = "Line.L115"
149       (  3)    1          0.13762 (  0.4966) /_ -167.2
149       (  4)    2           2.5839 (   9.324) /_ -120.8
149       (  5)    3           2.7012 (   9.747) /_  119.3
------------
1         (  6)    1          0.12859 (   0.464) /_ -171.2
1         (  7)    2           2.5568 (   9.226) /_ -121.0
1         (  8)    3           2.6852 (   9.689) /_  118.6

ELEMENT = "Line.L1"
1         (  7)    2           2.5568 (   9.226) /_ -121.0
------------
2         (  9)    2           2.5563 (   1.064) /_ -121.0

ELEMENT = "Line.L2"
1         (  8)    3           2.6852 (   9.689) /_  118.6
------------
3         ( 10)    3            2.681 (   1.116) /_  118.6

ELEMENT = "Line.L3"
1         (  6)    1          0.12859 (   0.464) /_ -171.2
1         (  7)    2           2.5568 (   9.226) /_ -121.0
1         (  8)    3           2.6852 (   9.689) /_  118.6
------------
7         ( 11)    1          0.12333 (   0.445) /_ -174.6
7         ( 12)    2           2.5373 (   9.156) /_ -121.3
7         ( 13)    3           2.6756 (   9.655) /_  118.2

ELEMENT = "Line.L4"
3         ( 10)    3            2.681 (   1.116) /_  118.6
------------
4         ( 14)    3           2.6797 (   1.116) /_  118.6

ELEMENT = "Line.L5"
3         ( 10)    3            2.681 (   1.116) /_  118.6
------------
5         ( 15)    3           2.6776 (   1.115) /_  118.6

ELEMENT = "Line.L6"
5         ( 15)    3           2.6776 (   1.115) /_  118.6
------------
6         ( 16)    3           2.6758 (   1.114) /_  118.6

ELEMENT = "Line.L7"
7         ( 11)    1          0.12333 (   0.445) /_ -174.6
7         ( 12)    2           2.5373 (   9.156) /_ -121.3
7         ( 13)    3           2.6756 (   9.655) /_  118.2
------------
8         ( 17)    1          0.12009 (  0.4333) /_ -177.0
8         ( 18)    2           2.5243 (   9.109) /_ -121.4
8         ( 19)    3           2.6694 (   9.632) /_  117.9

ELEMENT = "Line.L8"
8         ( 18)    2           2.5243 (   9.109) /_ -121.4
------------
12        ( 20)    2           2.5236 (   1.051) /_ -121.4

ELEMENT = "Line.L9"
8         ( 17)    1          0.12009 (  0.4333) /_ -177.0
------------
9         ( 21)    1          0.11989 (  0.4326) /_ -177.0

ELEMENT = "Line.L10"
8         ( 17)    1          0.12009 (  0.4333) /_ -177.0
8         ( 18)    2           2.5243 (   9.109) /_ -121.4
8         ( 19)    3           2.6694 (   9.632) /_  117.9
------------
13        ( 22)    1          0.11572 (  0.4176) /_  179.3
13        ( 23)    2           2.5053 (    9.04) /_ -121.6
13        ( 24)    3           2.6599 (   9.598) /_  117.4

ELEMENT = "Line.L11"
9R        ( 25)    1          0.13188 (  0.4759) /_ -177.0
------------
14        ( 26)    1          0.13166 (  0.4751) /_ -177.1

ELEMENT = "Line.L12"
13        ( 24)    3           2.6599 (   9.598) /_  117.4
------------
34        ( 27)    3           2.6574 (   1.106) /_  117.4

ELEMENT = "Line.L13"
13        ( 22)    1          0.11572 (  0.4176) /_  179.3
13        ( 23)    2           2.5053 (    9.04) /_ -121.6
13        ( 24)    3           2.6599 (   9.598) /_  117.4
------------
18        ( 28)    1          0.10348 (  0.3734) /_  176.0
18        ( 29)    2           2.4813 (   8.953) /_ -121.8
18        ( 30)    3           2.6456 (   9.546) /_  117.0

ELEMENT = "Line.L14"
14        ( 26)    1          0.13166 (  0.4751) /_ -177.1
------------
11        ( 31)    1          0.13157 (  0.4748) /_ -177.1

ELEMENT = "Line.L15"
14        ( 26)    1          0.13166 (  0.4751) /_ -177.1
------------
10        ( 32)    1          0.13162 (  0.4749) /_ -177.1

ELEMENT = "Line.L16"
15        ( 33)    3           2.6565 (   1.106) /_  117.4
------------
16        ( 34)    3           2.6541 (   1.105) /_  117.4

ELEMENT = "Line.L17"
15        ( 33)    3           2.6565 (   1.106) /_  117.4
------------
17        ( 35)    3           2.6554 (   1.106) /_  117.4

ELEMENT = "Line.L18"
18        ( 28)    1          0.10348 (  0.3734) /_  176.0
------------
19        ( 36)    1          0.10335 (  0.3729) /_  176.0

ELEMENT = "Line.L19"
18        ( 28)    1          0.10348 (  0.3734) /_  176.0
18        ( 29)    2           2.4813 (   8.953) /_ -121.8
18        ( 30)    3           2.6456 (   9.546) /_  117.0
------------
21        ( 37)    1          0.10192 (  0.3678) /_  175.9
21        ( 38)    2             2.48 (   8.949) /_ -121.7
21        ( 39)    3           2.6433 (   9.538) /_  116.9

ELEMENT = "Line.L20"
19        ( 36)    1          0.10335 (  0.3729) /_  176.0
------------
20        ( 40)    1          0.10326 (  0.3726) /_  176.0

ELEMENT = "Line.L21"
21        ( 38)    2             2.48 (   8.949) /_ -121.7
------------
22        ( 41)    2           2.4766 (   1.031) /_ -121.8

ELEMENT = "Line.L22"
21        ( 37)    1          0.10192 (  0.3678) /_  175.9
21        ( 38)    2             2.48 (   8.949) /_ -121.7
21        ( 39)    3           2.6433 (   9.538) /_  116.9
------------
23        ( 42)    1           0.1005 (  0.3627) /_  176.0
23        ( 43)    2           2.4798 (   8.948) /_ -121.7
23        ( 44)    3            2.641 (    9.53) /_  116.9

ELEMENT = "Line.L23"
23        ( 44)    3            2.641 (    9.53) /_  116.9
------------
24        ( 45)    3           2.6375 (   1.098) /_  116.8

ELEMENT = "Line.L24"
23        ( 42)    1           0.1005 (  0.3627) /_  176.0
23        ( 43)    2           2.4798 (   8.948) /_ -121.7
23        ( 44)    3            2.641 (    9.53) /_  116.9
------------
25        ( 46)    1         0.099441 (  0.3588) /_  176.1
25        ( 47)    2           2.4796 (   8.947) /_ -121.7
25        ( 48)    3           2.6394 (   9.524) /_  116.8

ELEMENT = "Line.L25"
25R       ( 49)    1          0.10938 (  0.3947) /_  176.1
25R       ( 50)    3           2.4084 (   8.691) /_  116.8
------------
26        ( 51)    1          0.10885 (  0.3928) /_  176.2
26        ( 52)    3           2.4073 (   8.687) /_  116.8

ELEMENT = "Line.L26"
25        ( 46)    1         0.099441 (  0.3588) /_  176.1
25        ( 47)    2           2.4796 (   8.947) /_ -121.7
25        ( 48)    3           2.6394 (   9.524) /_  116.8
------------
28        ( 53)    1          0.09903 (  0.3573) /_  176.1
28        ( 54)    2           2.4795 (   8.947) /_ -121.7
28        ( 55)    3           2.6387 (   9.522) /_  116.8

ELEMENT = "Line.L27"
26        ( 51)    1          0.10885 (  0.3928) /_  176.2
26        ( 52)    3           2.4073 (   8.687) /_  116.8
------------
27        ( 56)    1          0.10881 (  0.3926) /_  176.1
27        ( 57)    3           2.4073 (   8.687) /_  116.8

ELEMENT = "Line.L28"
26        ( 52)    3           2.4073 (   8.687) /_  116.8
------------
31        ( 58)    3           2.4059 (   1.002) /_  116.8

ELEMENT = "Line.L29"
27        ( 56)    1          0.10881 (  0.3926) /_  176.1
------------
33        ( 59)    1          0.10867 (  0.3921) /_  176.1

ELEMENT = "Line.L30"
28        ( 53)    1          0.09903 (  0.3573) /_  176.1
28        ( 54)    2           2.4795 (   8.947) /_ -121.7
28        ( 55)    3           2.6387 (   9.522) /_  116.8
------------
29        ( 60)    1         0.098451 (  0.3553) /_  176.2
29        ( 61)    2           2.4794 (   8.947) /_ -121.7
29        ( 62)    3           2.6378 (   9.518) /_  116.8

ELEMENT = "Line.L31"
29        ( 60)    1         0.098451 (  0.3553) /_  176.2
29        ( 61)    2           2.4794 (   8.947) /_ -121.7
29        ( 62)    3           2.6378 (   9.518) /_  116.8
------------
30        ( 63)    1         0.097822 (   0.353) /_  176.3
30        ( 64)    2           2.4793 (   8.946) /_ -121.7
30        ( 65)    3           2.6367 (   9.514) /_  116.8

ELEMENT = "Line.L32"
30        ( 63)    1         0.097822 (   0.353) /_  176.3
30        ( 64)    2           2.4793 (   8.946) /_ -121.7
30        ( 65)    3           2.6367 (   9.514) /_  116.8
------------
250       ( 66)    1         0.097822 (   0.353) /_  176.3
250       ( 67)    2           2.4793 (   8.946) /_ -121.7
250       ( 68)    3           2.6367 (   9.514) /_  116.8

ELEMENT = "Line.L33"
31        ( 58)    3           2.4059 (   1.002) /_  116.8
------------
32        ( 69)    3            2.405 (   1.001) /_  116.8

ELEMENT = "Line.L34"
34        ( 27)    3           2.6574 (   1.106) /_  117.4
------------
15        ( 33)    3           2.6565 (   1.106) /_  117.4

ELEMENT = "Line.L35"
35        ( 70)    1          0.10094 (  0.3642) /_  174.5
35        ( 71)    2           2.4716 (   8.919) /_ -121.8
------------
36        ( 72)    1           0.1011 (  0.3648) /_  173.9
36        ( 73)    2           2.4696 (   8.911) /_ -121.8

ELEMENT = "Line.L36"
35        ( 70)    1          0.10094 (  0.3642) /_  174.5
35        ( 71)    2           2.4716 (   8.919) /_ -121.8
35        ( 74)    3           2.6431 (   9.537) /_  116.8
------------
40        ( 75)    1          0.09947 (  0.3589) /_  173.3
40        ( 76)    2           2.4663 (   8.899) /_ -121.8
40        ( 77)    3           2.6406 (   9.528) /_  116.7

ELEMENT = "Line.L37"
36        ( 72)    1           0.1011 (  0.3648) /_  173.9
------------
37        ( 78)    1          0.10102 (  0.3645) /_  173.9

ELEMENT = "Line.L38"
36        ( 73)    2           2.4696 (   8.911) /_ -121.8
------------
38        ( 79)    2            2.468 (   1.028) /_ -121.8

ELEMENT = "Line.L39"
38        ( 79)    2            2.468 (   1.028) /_ -121.8
------------
39        ( 80)    2            2.467 (   1.027) /_ -121.9

ELEMENT = "Line.L40"
40        ( 77)    3           2.6406 (   9.528) /_  116.7
------------
41        ( 81)    3           2.6395 (   1.099) /_  116.7

ELEMENT = "Line.L41"
40        ( 75)    1          0.09947 (  0.3589) /_  173.3
40        ( 76)    2           2.4663 (   8.899) /_ -121.8
40        ( 77)    3           2.6406 (   9.528) /_  116.7
------------
42        ( 82)    1          0.09822 (  0.3544) /_  172.1
42        ( 83)    2            2.461 (    8.88) /_ -121.8
42        ( 84)    3           2.6384 (   9.521) /_  116.7

ELEMENT = "Line.L42"
42        ( 83)    2            2.461 (    8.88) /_ -121.8
------------
43        ( 85)    2           2.4578 (   1.023) /_ -121.9

ELEMENT = "Line.L43"
42        ( 82)    1          0.09822 (  0.3544) /_  172.1
42        ( 83)    2            2.461 (    8.88) /_ -121.8
42        ( 84)    3           2.6384 (   9.521) /_  116.7
------------
44        ( 86)    1         0.097117 (  0.3504) /_  171.3
44        ( 87)    2           2.4575 (   8.868) /_ -121.9
44        ( 88)    3           2.6364 (   9.513) /_  116.6

ELEMENT = "Line.L44"
44        ( 86)    1         0.097117 (  0.3504) /_  171.3
------------
45        ( 89)    1         0.097066 (  0.3503) /_  171.3

ELEMENT = "Line.L45"
44        ( 86)    1         0.097117 (  0.3504) /_  171.3
44        ( 87)    2           2.4575 (   8.868) /_ -121.9
44        ( 88)    3           2.6364 (   9.513) /_  116.6
------------
47        ( 90)    1         0.095796 (  0.3457) /_  170.3
47        ( 91)    2            2.453 (   8.852) /_ -121.9
47        ( 92)    3           2.6339 (   9.504) /_  116.5

ELEMENT = "Line.L46"
45        ( 89)    1         0.097066 (  0.3503) /_  171.3
------------
46        ( 93)    1         0.097028 (  0.3501) /_  171.3

ELEMENT = "Line.L47"
47        ( 90)    1         0.095796 (  0.3457) /_  170.3
47        ( 91)    2            2.453 (   8.852) /_ -121.9
47        ( 92)    3           2.6339 (   9.504) /_  116.5
------------
48        ( 94)    1         0.095421 (  0.3443) /_  170.1
48        ( 95)    2           2.4519 (   8.848) /_ -121.9
48        ( 96)    3           2.6333 (   9.502) /_  116.5

ELEMENT = "Line.L48"
47        ( 90)    1         0.095796 (  0.3457) /_  170.3
47        ( 91)    2            2.453 (   8.852) /_ -121.9
47        ( 92)    3           2.6339 (   9.504) /_  116.5
------------
49        ( 97)    1         0.095231 (  0.3436) /_  170.0
49        ( 98)    2           2.4512 (   8.845) /_ -121.9
49        ( 99)    3           2.6332 (   9.502) /_  116.5

ELEMENT = "Line.L49"
49        ( 97)    1         0.095231 (  0.3436) /_  170.0
49        ( 98)    2           2.4512 (   8.845) /_ -121.9
49        ( 99)    3           2.6332 (   9.502) /_  116.5
------------
50        (100)    1         0.094859 (  0.3423) /_  170.0
50        (101)    2            2.451 (   8.844) /_ -121.9
50        (102)    3           2.6324 (   9.499) /_  116.5

ELEMENT = "Line.L50"
50        (100)    1         0.094859 (  0.3423) /_  170.0
50        (101)    2            2.451 (   8.844) /_ -121.9
50        (102)    3           2.6324 (   9.499) /_  116.5
------------
51        (103)    1         0.094844 (  0.3422) /_  170.0
51        (104)    2            2.451 (   8.844) /_ -121.9
51        (105)    3           2.6324 (   9.499) /_  116.5

ELEMENT = "Line.L51"
51        (103)    1         0.094844 (  0.3422) /_  170.0
51        (104)    2            2.451 (   8.844) /_ -121.9
51        (105)    3           2.6324 (   9.499) /_  116.5
------------
151       (106)    1         0.094844 (  0.3422) /_  170.0
151       (107)    2            2.451 (   8.844) /_ -121.9
151       (108)    3           2.6324 (   9.499) /_  116.5

ELEMENT = "Line.L52"
52        (109)    1           0.1161 (   0.419) /_  175.8
52        (110)    2           2.4923 (   8.993) /_ -121.9
52        (111)    3           2.6572 (   9.588) /_  117.1
------------
53        (112)    1          0.11648 (  0.4203) /_  174.1
53        (113)    2           2.4859 (    8.97) /_ -122.1
53        (114)    3           2.6559 (   9.584) /_  116.9

ELEMENT = "Line.L53"
53        (112)    1          0.11648 (  0.4203) /_  174.1
53        (113)    2           2.4859 (    8.97) /_ -122.1
53        (114)    3           2.6559 (   9.584) /_  116.9
------------
54        (115)    1          0.11679 (  0.4214) /_  173.1
54        (116)    2           2.4818 (   8.956) /_ -122.2
54        (117)    3           2.6551 (   9.581) /_  116.8

ELEMENT = "Line.L54"
54        (115)    1          0.11679 (  0.4214) /_  173.1
54        (116)    2           2.4818 (   8.956) /_ -122.2
54        (117)    3           2.6551 (   9.581) /_  116.8
------------
55        (118)    1          0.11686 (  0.4217) /_  172.9
55        (119)    2           2.4814 (   8.954) /_ -122.2
55        (120)    3           2.6553 (   9.581) /_  116.8

ELEMENT = "Line.L55"
54        (115)    1          0.11679 (  0.4214) /_  173.1
54        (116)    2           2.4818 (   8.956) /_ -122.2
54        (117)    3           2.6551 (   9.581) /_  116.8
------------
57        (121)    1          0.11549 (  0.4167) /_  170.6
57        (122)    2           2.4703 (   8.914) /_ -122.4
57        (123)    3           2.6536 (   9.575) /_  116.6

ELEMENT = "Line.L56"
55        (118)    1          0.11686 (  0.4217) /_  172.9
55        (119)    2           2.4814 (   8.954) /_ -122.2
55        (120)    3           2.6553 (   9.581) /_  116.8
------------
56        (124)    1          0.11695 (   0.422) /_  172.8
56        (125)    2            2.481 (   8.953) /_ -122.2
56        (126)    3           2.6555 (   9.582) /_  116.8

ELEMENT = "Line.L57"
57        (122)    2           2.4703 (   8.914) /_ -122.4
------------
58        (127)    2           2.4687 (   1.028) /_ -122.4

ELEMENT = "Line.L58"
57        (121)    1          0.11549 (  0.4167) /_  170.6
57        (122)    2           2.4703 (   8.914) /_ -122.4
57        (123)    3           2.6536 (   9.575) /_  116.6
------------
60        (128)    1          0.11302 (  0.4078) /_  165.6
60        (129)    2            2.448 (   8.833) /_ -122.9
60        (130)    3           2.6493 (    9.56) /_  116.0

ELEMENT = "Line.L59"
58        (127)    2           2.4687 (   1.028) /_ -122.4
------------
59        (131)    2            2.468 (   1.028) /_ -122.4

ELEMENT = "Line.L60"
60        (128)    1          0.11302 (  0.4078) /_  165.6
60        (129)    2            2.448 (   8.833) /_ -122.9
60        (130)    3           2.6493 (    9.56) /_  116.0
------------
61        (132)    1          0.11302 (  0.4078) /_  165.6
61        (133)    2            2.448 (   8.833) /_ -122.9
61        (134)    3           2.6493 (    9.56) /_  116.0

ELEMENT = "Line.L61"
60        (128)    1          0.11302 (  0.4078) /_  165.6
60        (129)    2            2.448 (   8.833) /_ -122.9
60        (130)    3           2.6493 (    9.56) /_  116.0
------------
62        (135)    1          0.11235 (  0.4054) /_  165.5
62        (136)    2           2.4451 (   8.823) /_ -122.9
62        (137)    3           2.6443 (   9.542) /_  116.0

ELEMENT = "Line.L62"
62        (135)    1          0.11235 (  0.4054) /_  165.5
62        (136)    2           2.4451 (   8.823) /_ -122.9
62        (137)    3           2.6443 (   9.542) /_  116.0
------------
63        (138)    1           0.1121 (  0.4045) /_  165.3
63        (139)    2           2.4429 (   8.815) /_ -122.9
63        (140)    3            2.642 (   9.534) /_  116.0

ELEMENT = "Line.L63"
63        (138)    1           0.1121 (  0.4045) /_  165.3
63        (139)    2           2.4429 (   8.815) /_ -122.9
63        (140)    3            2.642 (   9.534) /_  116.0
------------
64        (141)    1          0.11171 (  0.4031) /_  164.8
64        (142)    2           2.4384 (   8.799) /_ -122.8
64        (143)    3           2.6373 (   9.517) /_  116.0

ELEMENT = "Line.L64"
64        (141)    1          0.11171 (  0.4031) /_  164.8
64        (142)    2           2.4384 (   8.799) /_ -122.8
64        (143)    3           2.6373 (   9.517) /_  116.0
------------
65        (144)    1          0.11165 (  0.4029) /_  165.1
65        (145)    2           2.4378 (   8.797) /_ -122.8
65        (146)    3           2.6308 (   9.493) /_  116.0

ELEMENT = "Line.L65"
65        (144)    1          0.11165 (  0.4029) /_  165.1
65        (145)    2           2.4378 (   8.797) /_ -122.8
65        (146)    3           2.6308 (   9.493) /_  116.0
------------
66        (147)    1          0.11093 (  0.4003) /_  165.6
66        (148)    2           2.4384 (   8.799) /_ -122.8
66        (149)    3           2.6272 (    9.48) /_  116.0

ELEMENT = "Line.L66"
67        (150)    1          0.12328 (  0.4448) /_  163.4
------------
68        (151)    1          0.12309 (  0.4441) /_  163.3

ELEMENT = "Line.L67"
67        (150)    1          0.12328 (  0.4448) /_  163.4
67        (152)    2           2.5025 (    9.03) /_ -123.1
67        (153)    3           2.5002 (   9.022) /_  115.8
------------
72        (154)    1          0.12438 (  0.4488) /_  162.4
72        (155)    2           2.4998 (    9.02) /_ -123.3
72        (156)    3           2.5022 (   9.029) /_  115.7

ELEMENT = "Line.L68"
67        (150)    1          0.12328 (  0.4448) /_  163.4
67        (152)    2           2.5025 (    9.03) /_ -123.1
67        (153)    3           2.5002 (   9.022) /_  115.8
------------
97        (157)    1          0.12218 (  0.4409) /_  162.9
97        (158)    2           2.4997 (    9.02) /_ -123.1
97        (159)    3           2.4988 (   9.017) /_  115.7

ELEMENT = "Line.L69"
68        (151)    1          0.12309 (  0.4441) /_  163.3
------------
69        (160)    1          0.12286 (  0.4433) /_  163.3

ELEMENT = "Line.L70"
69        (160)    1          0.12286 (  0.4433) /_  163.3
------------
70        (161)    1          0.12271 (  0.4428) /_  163.3

ELEMENT = "Line.L71"
70        (161)    1          0.12271 (  0.4428) /_  163.3
------------
71        (162)    1          0.12262 (  0.4425) /_  163.3

ELEMENT = "Line.L72"
72        (156)    3           2.5022 (   9.029) /_  115.7
------------
73        (163)    3           2.4971 (    1.04) /_  115.6

ELEMENT = "Line.L73"
72        (154)    1          0.12438 (  0.4488) /_  162.4
72        (155)    2           2.4998 (    9.02) /_ -123.3
72        (156)    3           2.5022 (   9.029) /_  115.7
------------
76        (164)    1          0.12615 (  0.4552) /_  161.7
76        (165)    2           2.4981 (   9.014) /_ -123.4
76        (166)    3           2.5056 (   9.041) /_  115.6

ELEMENT = "Line.L74"
73        (163)    3           2.4971 (    1.04) /_  115.6
------------
74        (167)    3           2.4927 (   1.038) /_  115.6

ELEMENT = "Line.L75"
74        (167)    3           2.4927 (   1.038) /_  115.6
------------
75        (168)    3           2.4902 (   1.037) /_  115.6

ELEMENT = "Line.L76"
76        (164)    1          0.12615 (  0.4552) /_  161.7
76        (165)    2           2.4981 (   9.014) /_ -123.4
76        (166)    3           2.5056 (   9.041) /_  115.6
------------
77        (169)    1           0.1287 (  0.4644) /_  160.7
77        (170)    2              2.5 (   9.021) /_ -123.5
77        (171)    3            2.511 (   9.061) /_  115.6

ELEMENT = "Line.L77"
76        (164)    1          0.12615 (  0.4552) /_  161.7
76        (165)    2           2.4981 (   9.014) /_ -123.4
76        (166)    3           2.5056 (   9.041) /_  115.6
------------
86        (172)    1          0.12782 (  0.4612) /_  160.1
86        (173)    2           2.4921 (   8.992) /_ -123.6
86        (174)    3           2.5105 (   9.059) /_  115.6

ELEMENT = "Line.L78"
77        (169)    1           0.1287 (  0.4644) /_  160.7
77        (170)    2              2.5 (   9.021) /_ -123.5
77        (171)    3            2.511 (   9.061) /_  115.6
------------
78        (175)    1          0.12928 (  0.4665) /_  160.6
78        (176)    2           2.5008 (   9.024) /_ -123.6
78        (177)    3           2.5122 (   9.065) /_  115.6

ELEMENT = "Line.L79"
78        (175)    1          0.12928 (  0.4665) /_  160.6
78        (176)    2           2.5008 (   9.024) /_ -123.6
78        (177)    3           2.5122 (   9.065) /_  115.6
------------
79        (178)    1          0.12924 (  0.4663) /_  160.5
79        (179)    2           2.5008 (   9.024) /_ -123.6
79        (180)    3           2.5122 (   9.065) /_  115.6

ELEMENT = "Line.L80"
78        (175)    1          0.12928 (  0.4665) /_  160.6
78        (176)    2           2.5008 (   9.024) /_ -123.6
78        (177)    3           2.5122 (   9.065) /_  115.6
------------
80        (181)    1          0.13212 (  0.4768) /_  159.7
80        (182)    2           2.5045 (   9.037) /_ -123.7
80        (183)    3           2.5179 (   9.086) /_  115.5

ELEMENT = "Line.L81"
80        (181)    1          0.13212 (  0.4768) /_  159.7
80        (182)    2           2.5045 (   9.037) /_ -123.7
80        (183)    3           2.5179 (   9.086) /_  115.5
------------
81        (184)    1          0.13306 (  0.4801) /_  159.5
81        (185)    2           2.5064 (   9.044) /_ -123.7
81        (186)    3           2.5197 (   9.092) /_  115.5

ELEMENT = "Line.L82"
81        (184)    1          0.13306 (  0.4801) /_  159.5
81        (185)    2           2.5064 (   9.044) /_ -123.7
81        (186)    3           2.5197 (   9.092) /_  115.5
------------
82        (187)    1          0.13507 (  0.4874) /_  159.2
82        (188)    2           2.5093 (   9.055) /_ -123.8
82        (189)    3           2.5234 (   9.106) /_  115.5

ELEMENT = "Line.L83"
81        (186)    3           2.5197 (   9.092) /_  115.5
------------
84        (190)    3           2.5136 (   1.047) /_  115.4

ELEMENT = "Line.L84"
82        (187)    1          0.13507 (  0.4874) /_  159.2
82        (188)    2           2.5093 (   9.055) /_ -123.8
82        (189)    3           2.5234 (   9.106) /_  115.5
------------
83        (191)    1          0.13712 (  0.4948) /_  159.0
83        (192)    2           2.5122 (   9.065) /_ -123.9
83        (193)    3           2.5272 (   9.119) /_  115.5

ELEMENT = "Line.L85"
84        (190)    3           2.5136 (   1.047) /_  115.4
------------
85        (194)    3           2.5107 (   1.045) /_  115.4

ELEMENT = "Line.L86"
86        (172)    1          0.12782 (  0.4612) /_  160.1
86        (173)    2           2.4921 (   8.992) /_ -123.6
86        (174)    3           2.5105 (   9.059) /_  115.6
------------
87        (195)    1          0.12879 (  0.4647) /_  159.2
87        (196)    2            2.489 (   8.981) /_ -123.7
87        (197)    3            2.513 (   9.068) /_  115.5

ELEMENT = "Line.L87"
87        (195)    1          0.12879 (  0.4647) /_  159.2
------------
88        (198)    1          0.12878 (  0.4647) /_  159.2

ELEMENT = "Line.L88"
87        (195)    1          0.12879 (  0.4647) /_  159.2
87        (196)    2            2.489 (   8.981) /_ -123.7
87        (197)    3            2.513 (   9.068) /_  115.5
------------
89        (199)    1          0.12919 (  0.4662) /_  158.8
89        (200)    2            2.488 (   8.978) /_ -123.7
89        (201)    3           2.5142 (   9.072) /_  115.5

ELEMENT = "Line.L89"
89        (200)    2            2.488 (   8.978) /_ -123.7
------------
90        (202)    2           2.4878 (   1.036) /_ -123.8

ELEMENT = "Line.L90"
89        (199)    1          0.12919 (  0.4662) /_  158.8
89        (200)    2            2.488 (   8.978) /_ -123.7
89        (201)    3           2.5142 (   9.072) /_  115.5
------------
91        (203)    1          0.12915 (   0.466) /_  158.5
91        (204)    2           2.4869 (   8.974) /_ -123.7
91        (205)    3           2.5148 (   9.074) /_  115.5

ELEMENT = "Line.L91"
91        (205)    3           2.5148 (   9.074) /_  115.5
------------
92        (206)    3           2.5146 (   1.047) /_  115.4

ELEMENT = "Line.L92"
91        (203)    1          0.12915 (   0.466) /_  158.5
91        (204)    2           2.4869 (   8.974) /_ -123.7
91        (205)    3           2.5148 (   9.074) /_  115.5
------------
93        (207)    1          0.12927 (  0.4665) /_  158.3
93        (208)    2           2.4862 (   8.971) /_ -123.7
93        (209)    3           2.5151 (   9.076) /_  115.5

ELEMENT = "Line.L93"
93        (207)    1          0.12927 (  0.4665) /_  158.3
------------
94        (210)    1          0.12918 (  0.4661) /_  158.3

ELEMENT = "Line.L94"
93        (207)    1          0.12927 (  0.4665) /_  158.3
93        (208)    2           2.4862 (   8.971) /_ -123.7
93        (209)    3           2.5151 (   9.076) /_  115.5
------------
95        (211)    1          0.12948 (  0.4672) /_  158.2
95        (212)    2           2.4853 (   8.968) /_ -123.8
95        (213)    3           2.5156 (   9.077) /_  115.5

ELEMENT = "Line.L95"
95        (212)    2           2.4853 (   8.968) /_ -123.8
------------
96        (214)    2           2.4847 (   1.035) /_ -123.8

ELEMENT = "Line.L96"
97        (157)    1          0.12218 (  0.4409) /_  162.9
97        (158)    2           2.4997 (    9.02) /_ -123.1
97        (159)    3           2.4988 (   9.017) /_  115.7
------------
98        (215)    1          0.12185 (  0.4397) /_  162.7
98        (216)    2           2.4988 (   9.017) /_ -123.1
98        (217)    3           2.4984 (   9.015) /_  115.7

ELEMENT = "Line.L97"
98        (215)    1          0.12185 (  0.4397) /_  162.7
98        (216)    2           2.4988 (   9.017) /_ -123.1
98        (217)    3           2.4984 (   9.015) /_  115.7
------------
99        (218)    1          0.12128 (  0.4376) /_  162.5
99        (219)    2           2.4968 (    9.01) /_ -123.1
99        (220)    3           2.4976 (   9.012) /_  115.7

ELEMENT = "Line.L98"
99        (218)    1          0.12128 (  0.4376) /_  162.5
99        (219)    2           2.4968 (    9.01) /_ -123.1
99        (220)    3           2.4976 (   9.012) /_  115.7
------------
100       (221)    1          0.12078 (  0.4358) /_  162.5
100       (222)    2           2.4967 (   9.009) /_ -123.1
100       (223)    3           2.4966 (   9.009) /_  115.6

ELEMENT = "Line.L99"
100       (221)    1          0.12078 (  0.4358) /_  162.5
100       (222)    2           2.4967 (   9.009) /_ -123.1
100       (223)    3           2.4966 (   9.009) /_  115.6
------------
450       (224)    1          0.12078 (  0.4358) /_  162.5
450       (225)    2           2.4967 (   9.009) /_ -123.1
450       (226)    3           2.4966 (   9.009) /_  115.6

ELEMENT = "Line.L118"
197       (227)    1          0.12218 (  0.4409) /_  162.9
197       (228)    2           2.4997 (    9.02) /_ -123.1
197       (229)    3           2.4988 (   9.017) /_  115.7
------------
101       (230)    1          0.12139 (   0.438) /_  162.6
101       (231)    2           2.4979 (   9.013) /_ -123.1
101       (232)    3           2.4978 (   9.013) /_  115.7

ELEMENT = "Line.L100"
101       (232)    3           2.4978 (   9.013) /_  115.7
------------
102       (233)    3           2.4944 (   1.039) /_  115.6

ELEMENT = "Line.L101"
101       (230)    1          0.12139 (   0.438) /_  162.6
101       (231)    2           2.4979 (   9.013) /_ -123.1
101       (232)    3           2.4978 (   9.013) /_  115.7
------------
105       (234)    1          0.12157 (  0.4387) /_  162.2
105       (235)    2           2.4961 (   9.007) /_ -123.2
105       (236)    3           2.4988 (   9.017) /_  115.7

ELEMENT = "Line.L102"
102       (233)    3           2.4944 (   1.039) /_  115.6
------------
103       (237)    3           2.4904 (   1.037) /_  115.6

ELEMENT = "Line.L103"
103       (237)    3           2.4904 (   1.037) /_  115.6
------------
104       (238)    3           2.4861 (   1.035) /_  115.6

ELEMENT = "Line.L104"
105       (235)    2           2.4961 (   9.007) /_ -123.2
...